135
XYZ file
 I  -10.668489   17.606109  -12.627818
 I  -12.558258   11.136766  -17.677107
 I  -17.709210   13.186887  -10.941658
 I  -10.668489   17.606109   10.941658
 I  -17.709210   13.186887   -0.843080
 I  -10.668489   17.606109    0.843080
 I  -12.558258   11.136766    5.892369
 I  -17.709210   13.186887   12.627818
 I  -10.294294   -5.687973  -12.627818
 I  -17.419012   -0.978553  -12.627818
 I  -12.184062  -12.157317  -17.677107
 I  -17.335015  -10.107196  -10.941658
 I  -10.294294   -5.687973   10.941658
 I  -17.419012   -0.978553   10.941658
 I  -17.335015  -10.107196   -0.843080
 I  -10.294294   -5.687973    0.843080
 I  -17.419012   -0.978553    0.843080
 I  -12.344415   -0.537021   -5.892369
 I  -12.184062  -12.157317    5.892369
 I  -17.335015  -10.107196   12.627818
 I  -12.344415   -0.537021   17.677107
 I    1.165650    5.771970  -12.627818
 I   -5.959068   10.481391  -12.627818
 I   -0.724118   -0.697373  -17.677107
 I  -10.949668    0.911216  -17.677107
Pb  -11.647042    0.187098  -11.784738
Pb  -11.834139   11.834139  -11.784738
Pb  -11.647042    0.187098    0.000000
Pb  -11.834139   11.834139    0.000000
 I  -12.999789    6.062168  -10.941658
 I   -5.875071    1.352748  -10.941658
 I    1.165650    5.771970   10.941658
 I   -5.959068   10.481391   10.941658
 I  -12.999789    6.062168   -0.843080
 I   -5.875071    1.352748   -0.843080
 I    1.165650    5.771970    0.843080
 I   -5.959068   10.481391    0.843080
 I  -11.110021   12.531512   -5.892369
 I   -0.884471   10.922923   -5.892369
 I   -0.724118   -0.697373    5.892369
 I  -10.949668    0.911216    5.892369
Pb  -11.647042    0.187098   11.784738
Pb  -11.834139   11.834139   11.784738
 I  -12.999789    6.062168   12.627818
 I   -5.875071    1.352748   12.627818
 I  -11.110021   12.531512   17.677107
 I   -0.884471   10.922923   17.677107
 I   12.625594   17.231914  -12.627818
 I   10.735825   10.762570  -17.677107
 I    0.510275   12.371159  -17.677107
Pb   -0.187098   11.647041  -11.784738
Pb   -0.187098   11.647041    0.000000
 I   -1.539846   17.522112  -10.941658
 I    5.584873   12.812691  -10.941658
 I   12.625594   17.231914   10.941658
 I   -1.539846   17.522112   -0.843080
 I    5.584873   12.812691   -0.843080
 I   12.625594   17.231914    0.843080
 I   10.735825   10.762570    5.892369
 I    0.510275   12.371159    5.892369
Pb   -0.187098   11.647041   11.784738
 I   -1.539846   17.522112   12.627818
 I    5.584873   12.812691   12.627818
 I    1.539845  -17.522112  -12.627818
 I   -5.584873  -12.812692  -12.627818
Pb  -11.459944  -11.459944  -11.784738
Pb  -11.459944  -11.459944    0.000000
 I  -12.625594  -17.231914  -10.941658
 I    1.539845  -17.522112   10.941658
 I   -5.584873  -12.812692   10.941658
 I  -12.625594  -17.231914   -0.843080
 I    1.539845  -17.522112    0.843080
 I   -5.584873  -12.812692    0.843080
 I  -10.735826  -10.762571   -5.892369
 I   -0.510276  -12.371160   -5.892369
Pb  -11.459944  -11.459944   11.784738
 I  -12.625594  -17.231914   12.627818
 I  -10.735826  -10.762571   17.677107
 I   -0.510276  -12.371160   17.677107
 I   12.999789   -6.062169  -12.627818
 I    5.875071   -1.352748  -12.627818
 I   11.110021  -12.531512  -17.677107
 I    0.884471  -10.922923  -17.677107
Pb    0.187098  -11.647042  -11.784738
Pb    0.000000    0.000000  -11.784738
Pb    0.187098  -11.647042    0.000000
Pb    0.000000    0.000000    0.000000
 I   -1.165650   -5.771971  -10.941658
 I    5.959068  -10.481391  -10.941658
 I   12.999789   -6.062169   10.941658
 I    5.875071   -1.352748   10.941658
 I   -1.165650   -5.771971   -0.843080
 I    5.959068  -10.481391   -0.843080
 I   12.999789   -6.062169    0.843080
 I    5.875071   -1.352748    0.843080
 I    0.724118    0.697373   -5.892369
 I   10.949668   -0.911216   -5.892369
 I   11.110021  -12.531512    5.892369
 I    0.884471  -10.922923    5.892369
Pb    0.187098  -11.647042   11.784738
Pb    0.000000    0.000000   11.784738
 I   -1.165650   -5.771971   12.627818
 I    5.959068  -10.481391   12.627818
 I    0.724118    0.697373   17.677107
 I   10.949668   -0.911216   17.677107
 I   17.335014   10.107195  -12.627818
 I   12.344414    0.537020  -17.677107
Pb   11.647041   -0.187098  -11.784738
Pb   11.459943   11.459943  -11.784738
Pb   11.647041   -0.187098    0.000000
Pb   11.459943   11.459943    0.000000
 I   10.294293    5.687973  -10.941658
 I   17.419012    0.978552  -10.941658
 I   17.335014   10.107195   10.941658
 I   10.294293    5.687973   -0.843080
 I   17.419012    0.978552   -0.843080
 I   17.335014   10.107195    0.843080
 I   12.184062   12.157317   -5.892369
 I   12.344414    0.537020    5.892369
Pb   11.647041   -0.187098   11.784738
Pb   11.459943   11.459943   11.784738
 I   10.294293    5.687973   12.627818
 I   17.419012    0.978552   12.627818
 I   12.184062   12.157317   17.677107
 I   17.709210  -13.186887  -12.627818
Pb   11.834139  -11.834139  -11.784738
Pb   11.834139  -11.834139    0.000000
 I   10.668489  -17.606110  -10.941658
 I   17.709210  -13.186887   10.941658
 I   10.668489  -17.606110   -0.843080
 I   17.709210  -13.186887    0.843080
 I   12.558257  -11.136766   -5.892369
Pb   11.834139  -11.834139   11.784738
 I   10.668489  -17.606110   12.627818
 I   12.558257  -11.136766   17.677107
